Created with the Wolfram Language for Students - Personal Use Only : www.wolfram.com
     WL             3D

 55 60  0  0  0  0  0  0  0  0999 V2000
   -3.8828    0.4469   -2.0732 C   0  0  0  0  0  0  0  0  0  0  0  0
   -3.1037   -0.0970   -0.8858 C   0  0  2  0  0  0  0  0  0  0  0  0
   -4.0188   -0.5686    0.2205 C   0  0  0  0  0  0  0  0  0  0  0  0
   -5.0670   -1.1738    0.0709 O   0  0  0  0  0  0  0  0  0  0  0  0
   -3.4691   -0.2994    1.4426 O   0  0  0  0  0  0  0  0  0  0  0  0
   -2.2496    0.4160    1.2701 C   0  0  1  0  0  0  0  0  0  0  0  0
   -1.0466   -0.5269    1.3624 C   0  0  2  0  0  0  0  0  0  0  0  0
   -0.6895   -0.7318    2.7127 O   0  0  0  0  0  0  0  0  0  0  0  0
    0.0528    0.1950    0.5737 C   0  0  2  0  0  0  0  0  0  0  0  0
    0.7726    1.2780    1.3690 C   0  0  2  0  0  0  0  0  0  0  0  0
    0.5273    2.5360    0.7203 O   0  0  0  0  0  0  0  0  0  0  0  0
   -0.1828    2.3667   -0.4229 C   0  0  0  0  0  0  0  0  0  0  0  0
   -0.3660    3.2425   -1.2520 O   0  0  0  0  0  0  0  0  0  0  0  0
   -0.7166    0.9510   -0.5091 C   0  0  1  0  0  0  0  0  0  0  0  0
   -0.4297    0.3411   -1.7596 O   0  0  0  0  0  0  0  0  0  0  0  0
    0.4937   -0.7364   -1.5844 C   0  0  2  0  0  0  0  0  0  0  0  0
   -0.2106   -1.9750   -1.5666 O   0  0  0  0  0  0  0  0  0  0  0  0
    0.2620   -2.7574   -0.5571 C   0  0  0  0  0  0  0  0  0  0  0  0
   -0.1791   -3.8533   -0.2574 O   0  0  0  0  0  0  0  0  0  0  0  0
    1.3830   -2.0392    0.1641 C   0  0  2  0  0  0  0  0  0  0  0  0
    1.4741   -2.1980    1.5519 O   0  0  0  0  0  0  0  0  0  0  0  0
    1.1483   -0.5904   -0.2241 C   0  0  2  0  0  0  0  0  0  0  0  0
    2.3934    0.3681   -0.1862 C   0  0  1  0  0  0  0  0  0  0  0  0
    2.2652    0.9470    1.2428 C   0  0  1  0  0  0  0  0  0  0  0  0
    3.0669    2.0964    1.4413 O   0  0  0  0  0  0  0  0  0  0  0  0
    3.8443   -0.1008   -0.6002 C   0  0  0  0  0  0  0  0  0  0  0  0
    3.8401   -0.8376   -1.9597 C   0  0  0  0  0  0  0  0  0  0  0  0
    4.7500    1.1448   -0.8178 C   0  0  0  0  0  0  0  0  0  0  0  0
    4.5547   -0.9667    0.4565 C   0  0  0  0  0  0  0  0  0  0  0  0
   -2.2290    0.9250   -0.1597 C   0  0  1  0  0  0  0  0  0  0  0  0
   -2.8517    2.2111   -0.1907 O   0  0  0  0  0  0  0  0  0  0  0  0
   -4.6204    1.1941   -1.7662 H   0  0  0  0  0  0  0  0  0  0  0  0
   -4.4355   -0.3587   -2.5663 H   0  0  0  0  0  0  0  0  0  0  0  0
   -3.2135    0.8989   -2.8126 H   0  0  0  0  0  0  0  0  0  0  0  0
   -2.5305   -0.9753   -1.1946 H   0  0  0  0  0  0  0  0  0  0  0  0
   -2.2157    1.2143    2.0194 H   0  0  0  0  0  0  0  0  0  0  0  0
   -1.3028   -1.5005    0.9447 H   0  0  0  0  0  0  0  0  0  0  0  0
   -1.4686   -1.0889    3.1825 H   0  0  0  0  0  0  0  0  0  0  0  0
    0.4753    1.3913    2.4153 H   0  0  0  0  0  0  0  0  0  0  0  0
    1.1774   -0.7469   -2.4344 H   0  0  0  0  0  0  0  0  0  0  0  0
    2.2871   -2.4537   -0.2747 H   0  0  0  0  0  0  0  0  0  0  0  0
    1.2918   -3.1421    1.7535 H   0  0  0  0  0  0  0  0  0  0  0  0
    2.1790    1.1877   -0.8886 H   0  0  0  0  0  0  0  0  0  0  0  0
    2.5430    0.1983    1.9905 H   0  0  0  0  0  0  0  0  0  0  0  0
    2.4872    2.8799    1.4466 H   0  0  0  0  0  0  0  0  0  0  0  0
    3.2802   -1.7738   -1.9426 H   0  0  0  0  0  0  0  0  0  0  0  0
    4.8605   -1.0972   -2.2703 H   0  0  0  0  0  0  0  0  0  0  0  0
    3.4166   -0.2013   -2.7464 H   0  0  0  0  0  0  0  0  0  0  0  0
    4.9887    1.6576    0.1180 H   0  0  0  0  0  0  0  0  0  0  0  0
    4.2827    1.8670   -1.4965 H   0  0  0  0  0  0  0  0  0  0  0  0
    5.7121    0.8571   -1.2631 H   0  0  0  0  0  0  0  0  0  0  0  0
    4.7258   -0.4180    1.3857 H   0  0  0  0  0  0  0  0  0  0  0  0
    5.5380   -1.2771    0.0920 H   0  0  0  0  0  0  0  0  0  0  0  0
    4.0198   -1.8847    0.7031 H   0  0  0  0  0  0  0  0  0  0  0  0
   -2.6782    2.6374   -1.0599 H   0  0  0  0  0  0  0  0  0  0  0  0
  1  2  1  0
  2  3  1  0
  3  4  2  0
  3  5  1  0
  5  6  1  0
  6  7  1  0
  7  8  1  0
  7  9  1  0
  9 10  1  0
 10 11  1  0
 11 12  1  0
 12 13  2  0
 12 14  1  0
 14 15  1  6
 15 16  1  0
 16 17  1  0
 17 18  1  0
 18 19  2  0
 18 20  1  0
 20 21  1  0
 20 22  1  0
 22 23  1  0
 23 24  1  0
 24 25  1  0
 23 26  1  0
 26 27  1  0
 26 28  1  0
 26 29  1  0
 14 30  1  0
 30 31  1  1
 30  2  1  0
 30  6  1  0
  9 14  1  6
 22 16  1  0
 22  9  1  1
 24 10  1  0
  1 32  1  0
  1 33  1  0
  1 34  1  0
  2 35  1  6
  6 36  1  1
  7 37  1  6
  8 38  1  0
 10 39  1  1
 16 40  1  6
 20 41  1  6
 21 42  1  0
 23 43  1  6
 24 44  1  1
 25 45  1  0
 27 46  1  0
 27 47  1  0
 27 48  1  0
 28 49  1  0
 28 50  1  0
 28 51  1  0
 29 52  1  0
 29 53  1  0
 29 54  1  0
 31 55  1  0
M  END
$$$$
