Created with the Wolfram Language for Students - Personal Use Only : www.wolfram.com
     WL             3D

 54 59  0  0  0  0  0  0  0  0999 V2000
   -3.9620   -2.0096    0.6380 C   0  0  0  0  0  0  0  0  0  0  0  0
   -3.6339   -0.5527    0.9004 C   0  0  1  0  0  0  0  0  0  0  0  0
   -2.2512   -0.0382    0.5718 C   0  0  0  0  0  0  0  0  0  0  0  0
   -2.3811    0.1857   -0.9056 C   0  0  1  0  0  0  0  0  0  0  0  0
   -3.5974    0.8859   -1.0178 O   0  0  0  0  0  0  0  0  0  0  0  0
   -4.4313    0.3438   -0.0538 C   0  0  0  0  0  0  0  0  0  0  0  0
   -5.6293    0.5617    0.0048 O   0  0  0  0  0  0  0  0  0  0  0  0
   -1.0670    0.9009   -1.1931 C   0  0  2  0  0  0  0  0  0  0  0  0
   -0.8264    0.9654   -2.5844 O   0  0  0  0  0  0  0  0  0  0  0  0
   -0.0523   -0.0218   -0.4531 C   0  0  2  0  0  0  0  0  0  0  0  0
    0.3868   -1.2094   -1.3042 C   0  0  2  0  0  0  0  0  0  0  0  0
   -0.0684   -2.4068   -0.6534 O   0  0  0  0  0  0  0  0  0  0  0  0
   -0.7331   -2.1431    0.5006 C   0  0  0  0  0  0  0  0  0  0  0  0
   -1.1186   -3.0142    1.2608 O   0  0  0  0  0  0  0  0  0  0  0  0
   -0.8666   -0.6484    0.7086 C   0  0  2  0  0  0  0  0  0  0  0  0
   -0.2696   -0.2283    1.9335 O   0  0  0  0  0  0  0  0  0  0  0  0
    0.7381    0.7469    1.6714 C   0  0  2  0  0  0  0  0  0  0  0  0
    0.1900    2.0628    1.7154 O   0  0  0  0  0  0  0  0  0  0  0  0
    0.7221    2.7996    0.7011 C   0  0  0  0  0  0  0  0  0  0  0  0
    0.4512    3.9659    0.4694 O   0  0  0  0  0  0  0  0  0  0  0  0
    1.6647    1.9368   -0.1226 C   0  0  2  0  0  0  0  0  0  0  0  0
    1.6628    2.1236   -1.5130 O   0  0  0  0  0  0  0  0  0  0  0  0
    1.2289    0.5341    0.2524 C   0  0  2  0  0  0  0  0  0  0  0  0
    2.2742   -0.6328    0.1012 C   0  0  1  0  0  0  0  0  0  0  0  0
    1.9169   -1.1675   -1.3021 C   0  0  1  0  0  0  0  0  0  0  0  0
    2.4529   -2.4512   -1.5652 O   0  0  0  0  0  0  0  0  0  0  0  0
    3.8176   -0.4314    0.3737 C   0  0  0  0  0  0  0  0  0  0  0  0
    4.5136   -1.8184    0.4744 C   0  0  0  0  0  0  0  0  0  0  0  0
    4.5600    0.3409   -0.7338 C   0  0  0  0  0  0  0  0  0  0  0  0
    4.0726    0.2488    1.7347 C   0  0  0  0  0  0  0  0  0  0  0  0
   -3.5938   -2.3556   -0.3325 H   0  0  0  0  0  0  0  0  0  0  0  0
   -5.0465   -2.1675    0.6433 H   0  0  0  0  0  0  0  0  0  0  0  0
   -3.5431   -2.6479    1.4197 H   0  0  0  0  0  0  0  0  0  0  0  0
   -3.8955   -0.2870    1.9308 H   0  0  0  0  0  0  0  0  0  0  0  0
   -2.2118    0.9422    1.0811 H   0  0  0  0  0  0  0  0  0  0  0  0
   -2.4575   -0.7265   -1.5130 H   0  0  0  0  0  0  0  0  0  0  0  0
   -1.1004    1.9225   -0.8086 H   0  0  0  0  0  0  0  0  0  0  0  0
   -1.4983    1.5566   -2.9762 H   0  0  0  0  0  0  0  0  0  0  0  0
    0.0039   -1.2437   -2.3274 H   0  0  0  0  0  0  0  0  0  0  0  0
    1.5018    0.6719    2.4478 H   0  0  0  0  0  0  0  0  0  0  0  0
    2.6555    2.1904    0.2524 H   0  0  0  0  0  0  0  0  0  0  0  0
    1.7299    3.0843   -1.6807 H   0  0  0  0  0  0  0  0  0  0  0  0
    1.9812   -1.4109    0.8238 H   0  0  0  0  0  0  0  0  0  0  0  0
    2.2656   -0.4789   -2.0787 H   0  0  0  0  0  0  0  0  0  0  0  0
    1.8594   -3.1148   -1.1638 H   0  0  0  0  0  0  0  0  0  0  0  0
    4.5748   -2.3241   -0.4929 H   0  0  0  0  0  0  0  0  0  0  0  0
    5.5459   -1.7172    0.8315 H   0  0  0  0  0  0  0  0  0  0  0  0
    3.9903   -2.4783    1.1752 H   0  0  0  0  0  0  0  0  0  0  0  0
    4.4947   -0.1726   -1.6986 H   0  0  0  0  0  0  0  0  0  0  0  0
    5.6274    0.4277   -0.4958 H   0  0  0  0  0  0  0  0  0  0  0  0
    4.1902    1.3563   -0.8730 H   0  0  0  0  0  0  0  0  0  0  0  0
    5.1461    0.3036    1.9534 H   0  0  0  0  0  0  0  0  0  0  0  0
    3.6075   -0.3183    2.5487 H   0  0  0  0  0  0  0  0  0  0  0  0
    3.6992    1.2728    1.7782 H   0  0  0  0  0  0  0  0  0  0  0  0
  1  2  1  0
  2  3  1  0
  3  4  1  0
  4  5  1  0
  5  6  1  0
  6  7  2  0
  4  8  1  0
  8  9  1  0
  8 10  1  0
 10 11  1  0
 11 12  1  0
 12 13  1  0
 13 14  2  0
 13 15  1  0
 15 16  1  1
 16 17  1  0
 17 18  1  0
 18 19  1  0
 19 20  2  0
 19 21  1  0
 21 22  1  0
 21 23  1  0
 23 24  1  0
 24 25  1  0
 25 26  1  0
 24 27  1  0
 27 28  1  0
 27 29  1  0
 27 30  1  0
  6  2  1  0
 10 15  1  1
 23 17  1  0
 15  3  1  0
 23 10  1  6
 25 11  1  0
  1 31  1  0
  1 32  1  0
  1 33  1  0
  2 34  1  1
  3 35  1  0
  4 36  1  6
  8 37  1  1
  9 38  1  0
 11 39  1  6
 17 40  1  1
 21 41  1  1
 22 42  1  0
 24 43  1  1
 25 44  1  6
 26 45  1  0
 28 46  1  0
 28 47  1  0
 28 48  1  0
 29 49  1  0
 29 50  1  0
 29 51  1  0
 30 52  1  0
 30 53  1  0
 30 54  1  0
M  END
$$$$
