Created with the Wolfram Language for Students - Personal Use Only : www.wolfram.com
     WL             3D

 54 59  0  0  0  0  0  0  0  0999 V2000
    4.7360   -0.3879    0.3693 C   0  0  0  0  0  0  0  0  0  0  0  0
    3.3329   -0.1248   -0.1675 C   0  0  2  0  0  0  0  0  0  0  0  0
    2.9741    1.3187    0.0774 C   0  0  0  0  0  0  0  0  0  0  0  0
    3.5109    2.2810   -0.4441 O   0  0  0  0  0  0  0  0  0  0  0  0
    1.9586    1.4203    0.9942 O   0  0  0  0  0  0  0  0  0  0  0  0
    1.7880    0.1565    1.6087 C   0  0  1  0  0  0  0  0  0  0  0  0
    0.3305   -0.1771    1.8957 C   0  0  0  0  0  0  0  0  0  0  0  0
   -0.2814   -0.5575    0.5437 C   0  0  2  0  0  0  0  0  0  0  0  0
   -1.1806   -1.7911    0.6228 C   0  0  2  0  0  0  0  0  0  0  0  0
   -0.3849   -2.9447    0.3922 O   0  0  0  0  0  0  0  0  0  0  0  0
    0.6586   -2.5851   -0.4135 C   0  0  0  0  0  0  0  0  0  0  0  0
    1.2780   -3.3820   -1.0963 O   0  0  0  0  0  0  0  0  0  0  0  0
    0.9037   -1.0877   -0.2736 C   0  0  1  0  0  0  0  0  0  0  0  0
    0.8736   -0.4468   -1.5291 O   0  0  0  0  0  0  0  0  0  0  0  0
   -0.2163    0.4672   -1.6350 C   0  0  2  0  0  0  0  0  0  0  0  0
    0.3652    1.7494   -1.8612 O   0  0  0  0  0  0  0  0  0  0  0  0
    0.0150    2.5977   -0.8761 C   0  0  0  0  0  0  0  0  0  0  0  0
    0.4477    3.7273   -0.7146 O   0  0  0  0  0  0  0  0  0  0  0  0
   -1.0844    1.9840   -0.0532 C   0  0  2  0  0  0  0  0  0  0  0  0
   -1.0969    2.3371    1.3053 O   0  0  0  0  0  0  0  0  0  0  0  0
   -1.0515    0.4862   -0.3228 C   0  0  2  0  0  0  0  0  0  0  0  0
   -2.5246   -0.1305   -0.5153 C   0  0  1  0  0  0  0  0  0  0  0  0
   -2.2391   -1.6424   -0.4752 C   0  0  1  0  0  0  0  0  0  0  0  0
   -1.7293   -2.0076   -1.7565 O   0  0  0  0  0  0  0  0  0  0  0  0
   -3.7565    0.2755    0.4193 C   0  0  0  0  0  0  0  0  0  0  0  0
   -3.5229    0.0512    1.9209 C   0  0  0  0  0  0  0  0  0  0  0  0
   -4.2023    1.7436    0.2203 C   0  0  0  0  0  0  0  0  0  0  0  0
   -5.0042   -0.5652    0.0161 C   0  0  0  0  0  0  0  0  0  0  0  0
    2.2100   -0.8581    0.5624 C   0  0  1  0  0  0  0  0  0  0  0  0
    2.7005   -2.0204    1.2363 O   0  0  0  0  0  0  0  0  0  0  0  0
    5.0274   -1.4314    0.2114 H   0  0  0  0  0  0  0  0  0  0  0  0
    4.8102   -0.1655    1.4396 H   0  0  0  0  0  0  0  0  0  0  0  0
    5.4699    0.2433   -0.1439 H   0  0  0  0  0  0  0  0  0  0  0  0
    3.3110   -0.3308   -1.2420 H   0  0  0  0  0  0  0  0  0  0  0  0
    2.3778    0.1215    2.5324 H   0  0  0  0  0  0  0  0  0  0  0  0
   -0.1881    0.6266    2.4129 H   0  0  0  0  0  0  0  0  0  0  0  0
    0.3031   -1.0399    2.5747 H   0  0  0  0  0  0  0  0  0  0  0  0
   -1.6436   -1.8868    1.6069 H   0  0  0  0  0  0  0  0  0  0  0  0
   -0.8021    0.2190   -2.5253 H   0  0  0  0  0  0  0  0  0  0  0  0
   -1.9637    2.4268   -0.5259 H   0  0  0  0  0  0  0  0  0  0  0  0
   -0.7958    3.2687    1.3514 H   0  0  0  0  0  0  0  0  0  0  0  0
   -2.8421    0.1369   -1.5343 H   0  0  0  0  0  0  0  0  0  0  0  0
   -3.0956   -2.2891   -0.2897 H   0  0  0  0  0  0  0  0  0  0  0  0
   -1.6127   -2.9785   -1.7703 H   0  0  0  0  0  0  0  0  0  0  0  0
   -4.3434    0.4771    2.5113 H   0  0  0  0  0  0  0  0  0  0  0  0
   -2.6015    0.5211    2.2682 H   0  0  0  0  0  0  0  0  0  0  0  0
   -3.4870   -1.0120    2.1737 H   0  0  0  0  0  0  0  0  0  0  0  0
   -3.5819    2.4489    0.7768 H   0  0  0  0  0  0  0  0  0  0  0  0
   -5.2203    1.9085    0.5959 H   0  0  0  0  0  0  0  0  0  0  0  0
   -4.2060    2.0197   -0.8396 H   0  0  0  0  0  0  0  0  0  0  0  0
   -5.9133   -0.1927    0.5043 H   0  0  0  0  0  0  0  0  0  0  0  0
   -5.1719   -0.5266   -1.0661 H   0  0  0  0  0  0  0  0  0  0  0  0
   -4.9198   -1.6141    0.3145 H   0  0  0  0  0  0  0  0  0  0  0  0
    2.0231   -2.4281    1.8037 H   0  0  0  0  0  0  0  0  0  0  0  0
  1  2  1  0
  2  3  1  0
  3  4  2  0
  3  5  1  0
  5  6  1  0
  6  7  1  0
  8  7  1  1
  8  9  1  0
  9 10  1  0
 10 11  1  0
 11 12  2  0
 11 13  1  0
 13 14  1  6
 14 15  1  0
 15 16  1  0
 16 17  1  0
 17 18  2  0
 17 19  1  0
 19 20  1  0
 19 21  1  0
 21 22  1  0
 22 23  1  0
 23 24  1  0
 22 25  1  0
 25 26  1  0
 25 27  1  0
 25 28  1  0
 13 29  1  0
 29 30  1  1
 29  2  1  0
 29  6  1  0
 13  8  1  0
 21 15  1  0
 21  8  1  1
 23  9  1  0
  1 31  1  0
  1 32  1  0
  1 33  1  0
  2 34  1  6
  6 35  1  1
  7 36  1  0
  7 37  1  0
  9 38  1  1
 15 39  1  6
 19 40  1  6
 20 41  1  0
 22 42  1  6
 23 43  1  1
 24 44  1  0
 26 45  1  0
 26 46  1  0
 26 47  1  0
 27 48  1  0
 27 49  1  0
 27 50  1  0
 28 51  1  0
 28 52  1  0
 28 53  1  0
 30 54  1  0
M  END
$$$$
