Created with the Wolfram Language for Students - Personal Use Only : www.wolfram.com
     WL             3D

 35 37  0  0  0  0  0  0  0  0999 V2000
   -5.6977   -1.1315    0.9419 N   0  0  0  0  0  0  0  0  0  0  0  0
   -4.5023   -0.6293    0.5383 C   0  0  0  0  0  0  0  0  0  0  0  0
   -4.2443    0.6361    0.7098 N   0  0  0  0  0  0  0  0  0  0  0  0
   -2.9320    1.1110    0.2669 C   0  0  0  0  0  0  0  0  0  0  0  0
   -2.0160    0.3014   -0.3392 C   0  0  0  0  0  0  0  0  0  0  0  0
   -0.8450    1.0462   -0.6035 C   0  0  0  0  0  0  0  0  0  0  0  0
    0.4253    0.5659   -1.2213 C   0  0  0  0  0  0  0  0  0  0  0  0
    1.3400    0.2363   -0.1311 N   0  0  0  0  0  0  0  0  0  0  0  0
    2.6165   -0.2798   -0.6153 C   0  0  1  0  0  0  0  0  0  0  0  0
    3.5197    0.8351   -1.0740 C   0  0  0  0  0  0  0  0  0  0  0  0
    4.4862    1.1041   -0.1856 C   0  0  0  0  0  0  0  0  0  0  0  0
    4.3857    0.2267    1.0187 C   0  0  2  0  0  0  0  0  0  0  0  0
    5.6786   -0.2428    1.3653 O   0  0  0  0  0  0  0  0  0  0  0  0
    3.4690   -0.9113    0.5228 C   0  0  2  0  0  0  0  0  0  0  0  0
    4.2839   -1.9967    0.0249 O   0  0  0  0  0  0  0  0  0  0  0  0
   -1.1268    2.3349   -0.1550 C   0  0  0  0  0  0  0  0  0  0  0  0
   -2.4010    2.3571    0.3711 N   0  0  0  0  0  0  0  0  0  0  0  0
   -2.4304   -1.1488   -0.5532 C   0  0  0  0  0  0  0  0  0  0  0  0
   -1.6746   -1.8277   -1.2271 O   0  0  0  0  0  0  0  0  0  0  0  0
   -3.6350   -1.5282   -0.0289 N   0  0  0  0  0  0  0  0  0  0  0  0
   -6.1960   -0.4629    1.5226 H   0  0  0  0  0  0  0  0  0  0  0  0
   -5.6664   -2.0499    1.3648 H   0  0  0  0  0  0  0  0  0  0  0  0
    0.8364    1.3574   -1.8592 H   0  0  0  0  0  0  0  0  0  0  0  0
    0.2398   -0.3060   -1.8564 H   0  0  0  0  0  0  0  0  0  0  0  0
    1.4814    1.0641    0.4440 H   0  0  0  0  0  0  0  0  0  0  0  0
    2.4757   -1.0184   -1.4134 H   0  0  0  0  0  0  0  0  0  0  0  0
    3.3852    1.3638   -2.0077 H   0  0  0  0  0  0  0  0  0  0  0  0
    5.2323    1.8790   -0.2912 H   0  0  0  0  0  0  0  0  0  0  0  0
    3.9497    0.7783    1.8577 H   0  0  0  0  0  0  0  0  0  0  0  0
    5.6165   -1.2186    1.3645 H   0  0  0  0  0  0  0  0  0  0  0  0
    2.8608   -1.3269    1.3329 H   0  0  0  0  0  0  0  0  0  0  0  0
    4.8036   -1.6335   -0.7174 H   0  0  0  0  0  0  0  0  0  0  0  0
   -0.5251    3.2340   -0.1585 H   0  0  0  0  0  0  0  0  0  0  0  0
   -2.8698    3.1541    0.7787 H   0  0  0  0  0  0  0  0  0  0  0  0
   -3.9358   -2.4649   -0.2333 H   0  0  0  0  0  0  0  0  0  0  0  0
  1  2  1  0
  2  3  2  0
  3  4  1  0
  4  5  2  0
  5  6  1  0
  6  7  1  0
  7  8  1  0
  8  9  1  0
  9 10  1  0
 10 11  2  0
 11 12  1  0
 12 13  1  0
 12 14  1  0
 14 15  1  0
  6 16  2  0
 16 17  1  0
  5 18  1  0
 18 19  2  0
 18 20  1  0
 20  2  1  0
 17  4  1  0
 14  9  1  0
  1 21  1  0
  1 22  1  0
  7 23  1  0
  7 24  1  0
  8 25  1  0
  9 26  1  6
 10 27  1  0
 11 28  1  0
 12 29  1  1
 13 30  1  0
 14 31  1  1
 15 32  1  0
 16 33  1  0
 17 34  1  0
 20 35  1  0
M  END
$$$$
